ca_results/summer/base_case/fnsl/rts_gmlc_export_13_40_summer_v35_Radj_base_fnsl.raw
@!IC,SBASE,REV,XFRRAT,NXFRAT,BASFRQ
0,  100.00, 35,     0,     1, 60.00     / PSS(R)E 35 RAW created by rawd35  WED, APR 08 2026  20:42
EXPORT_1_1
PSS/E 33.3 RAW VIA POWERFLOWS.JL, 2026-03-25T20:03:36.793
GENERAL, THRSHZ=0.0001, PQBRAK=0.7, BLOWUP=5.0, MaxIsolLvls=4, CAMaxReptSln=20, ChkDupCntLbl=0
GAUSS, ITMX=100, ACCP=1.6, ACCQ=1.6, ACCM=1.0, TOL=0.0001
NEWTON, ITMXN=20, ACCN=1.0, TOLN=0.1, VCTOLQ=0.1, VCTOLV=0.00001, DVLIM=0.99, NDVFCT=0.99
ADJUST, ADJTHR=0.005, ACCTAP=1.0, TAPLIM=0.05, SWVBND=100.0, MXTPSS=99, MXSWIM=10
TYSL, ITMXTY=20, ACCTY=1.0, TOLTY=0.00001
SOLVER, FNSL, ACTAPS=0, AREAIN=0, PHSHFT=0, DCTAPS=1, SWSHNT=1, FLATST=0, VARLIM=99, NONDIV=0
RATING, 1, "RATE1 ", "RATING SET 1                    "
RATING, 2, "RATE2 ", "RATING SET 2                    "
RATING, 3, "RATE3 ", "RATING SET 3                    "
RATING, 4, "RATE4 ", "RATING SET 4                    "
RATING, 5, "RATE5 ", "RATING SET 5                    "
RATING, 6, "RATE6 ", "RATING SET 6                    "
RATING, 7, "RATE7 ", "RATING SET 7                    "
RATING, 8, "RATE8 ", "RATING SET 8                    "
RATING, 9, "RATE9 ", "RATING SET 9                    "
RATING,10, "RATE10", "RATING SET 10                   "
RATING,11, "RATE11", "RATING SET 11                   "
RATING,12, "RATE12", "RATING SET 12                   "
0 / END OF SYSTEM-WIDE DATA, BEGIN BUS DATA
@!   I,'NAME        ', BASKV, IDE,AREA,ZONE,OWNER, VM,        VA,    NVHI,   NVLO,   EVHI,   EVLO
   101,'ABEL        ', 138.0000,2,   1,  11,   1,0.96371,  -5.1111,1.05000,0.95000,1.10000,0.90000
   102,'ADAMS       ', 138.0000,2,   1,  12,   1,0.96458,  -5.2675,1.05000,0.95000,1.10000,0.90000
   103,'ADLER       ', 138.0000,1,   1,  11,   1,0.93220, -13.7489,1.05000,0.95000,1.10000,0.90000
   104,'AGRICOLA    ', 138.0000,1,   1,  11,   1,0.93606, -10.9478,1.05000,0.95000,1.10000,0.90000
   105,'AIKEN       ', 138.0000,1,   1,  11,   1,0.95471, -10.0640,1.05000,0.95000,1.10000,0.90000
   106,'ALBER       ', 138.0000,1,   1,  12,   1,0.95393, -13.7221,1.05000,0.95000,1.10000,0.90000
   107,'ALDER       ', 138.0000,2,   1,  12,   1,0.96437, -11.4671,1.05000,0.95000,1.10000,0.90000
   108,'ALGER       ', 138.0000,1,   1,  12,   1,0.93719, -14.7171,1.05000,0.95000,1.10000,0.90000
   109,'ALI         ', 138.0000,1,   1,  13,   1,0.94613, -11.6042,1.05000,0.95000,1.10000,0.90000
   110,'ALLEN       ', 138.0000,1,   1,  13,   1,0.97312, -11.9851,1.05000,0.95000,1.10000,0.90000
   111,'ANNA        ', 230.0000,1,   1,  13,   1,0.96228,  -7.5355,1.05000,0.95000,1.10000,0.90000
   112,'ARCHER      ', 230.0000,1,   1,  13,   1,0.97784,  -5.2249,1.05000,0.95000,1.10000,0.90000
   113,'ARNE        ', 230.0000,3,   1,  14,   1,0.98099,  -0.0000,1.05000,0.95000,1.10000,0.90000
   114,'ARNOLD      ', 230.0000,2,   1,  16,   1,0.96318,  -9.9820,1.05000,0.95000,1.10000,0.90000
   115,'ARTHUR      ', 230.0000,2,   1,  16,   1,0.98611,  -8.5505,1.05000,0.95000,1.10000,0.90000
   116,'ASSER       ', 230.0000,2,   1,  16,   1,0.99273,  -7.5086,1.05000,0.95000,1.10000,0.90000
   117,'ASTON       ', 230.0000,1,   1,  17,   1,0.98741,  -7.3598,1.05000,0.95000,1.10000,0.90000
   118,'ASTOR       ', 230.0000,2,   1,  17,   1,0.98148,  -7.3482,1.05000,0.95000,1.10000,0.90000
   119,'ATTAR       ', 230.0000,1,   1,  15,   1,1.00928,  -6.2284,1.05000,0.95000,1.10000,0.90000
   120,'ATTILA      ', 230.0000,1,   1,  15,   1,1.03288,  -3.4821,1.05000,0.95000,1.10000,0.90000
   121,'ATTLEE      ', 230.0000,2,   1,  17,   1,0.98428,  -7.4797,1.05000,0.95000,1.10000,0.90000
   122,'AUBREY      ', 230.0000,2,   1,  17,   1,0.99473,  -6.6771,1.05000,0.95000,1.10000,0.90000
   123,'AUSTEN      ', 230.0000,2,   1,  15,   1,1.05000,  -1.4077,1.05000,0.95000,1.10000,0.90000
   124,'AVERY       ', 230.0000,1,   1,  16,   1,0.96392, -10.4021,1.05000,0.95000,1.10000,0.90000
   201,'BACH        ', 138.0000,2,   2,  21,   1,0.95393, -36.6901,1.05000,0.95000,1.10000,0.90000
   202,'BACON       ', 138.0000,2,   2,  22,   1,0.95480, -36.8600,1.05000,0.95000,1.10000,0.90000
   203,'BAFFIN      ', 138.0000,1,   2,  21,   1,0.93219, -27.9306,1.05000,0.95000,1.10000,0.90000
   204,'BAILEY      ', 138.0000,1,   2,  21,   1,0.93343, -39.4380,1.05000,0.95000,1.10000,0.90000
   205,'BAIN        ', 138.0000,1,   2,  21,   1,0.95476, -40.3426,1.05000,0.95000,1.10000,0.90000
   206,'BAJER       ', 138.0000,1,   2,  22,   1,0.95871, -43.2762,1.05000,0.95000,1.10000,0.90000
   207,'BAKER       ', 138.0000,2,   2,  22,   1,0.92164, -47.2913,1.05000,0.95000,1.10000,0.90000
   208,'BALCH       ', 138.0000,1,   2,  22,   1,0.91059, -47.1060,1.05000,0.95000,1.10000,0.90000
   209,'BALZAC      ', 138.0000,1,   2,  23,   1,0.94791, -37.3589,1.05000,0.95000,1.10000,0.90000
   210,'BANKS       ', 138.0000,1,   2,  23,   1,0.98196, -40.7973,1.05000,0.95000,1.10000,0.90000
   211,'BARDEEN     ', 230.0000,1,   2,  23,   1,0.98352, -32.9249,1.05000,0.95000,1.10000,0.90000
   212,'BARKLA      ', 230.0000,1,   2,  23,   1,0.99988, -33.2911,1.05000,0.95000,1.10000,0.90000
   213,'BARLOW      ', 230.0000,2,   2,  24,   1,1.03153, -31.6024,1.05000,0.95000,1.10000,0.90000
   214,'BARRY       ', 230.0000,2,   2,  26,   1,0.97599, -28.1537,1.05000,0.95000,1.10000,0.90000
   215,'BARTON      ', 230.0000,2,   2,  26,   1,1.00857, -12.6284,1.05000,0.95000,1.10000,0.90000
   216,'BASOV       ', 230.0000,2,   2,  26,   1,1.01425, -15.8472,1.05000,0.95000,1.10000,0.90000
   217,'BATES       ', 230.0000,1,   2,  27,   1,1.03615, -10.6054,1.05000,0.95000,1.10000,0.90000
   218,'BAYLE       ', 230.0000,2,   2,  27,   1,1.04651,  -9.7052,1.05000,0.95000,1.10000,0.90000
   219,'BEDE        ', 230.0000,1,   2,  25,   1,1.01932, -21.0917,1.05000,0.95000,1.10000,0.90000
   220,'BEETHOVEN   ', 230.0000,1,   2,  25,   1,1.03714, -23.8423,1.05000,0.95000,1.10000,0.90000
   221,'BEHRING     ', 230.0000,2,   2,  27,   1,1.04281,  -9.2082,1.05000,0.95000,1.10000,0.90000
   222,'BELL        ', 230.0000,1,   2,  27,   1,1.04797,  -9.8127,1.05000,0.95000,1.10000,0.90000
   223,'BLOCH       ', 230.0000,2,   2,  25,   1,1.05000, -24.6736,1.05000,0.95000,1.10000,0.90000
   224,'BORDET      ', 230.0000,1,   2,  26,   1,0.96619, -18.0896,1.05000,0.95000,1.10000,0.90000
   301,'CABELL      ', 138.0000,2,   3,  31,   1,0.96077, -52.6041,1.05000,0.95000,1.10000,0.90000
   302,'CABOT       ', 138.0000,2,   3,  32,   1,0.96196, -52.7164,1.05000,0.95000,1.10000,0.90000
   303,'CAESAR      ', 138.0000,1,   3,  31,   1,0.92562, -49.9897,1.05000,0.95000,1.10000,0.90000
   304,'CAINE       ', 138.0000,1,   3,  31,   1,0.93138, -54.0187,1.05000,0.95000,1.10000,0.90000
   305,'CALVIN      ', 138.0000,1,   3,  31,   1,0.95208, -54.3822,1.05000,0.95000,1.10000,0.90000
   306,'CAMUS       ', 138.0000,1,   3,  32,   1,0.95172, -56.1999,1.05000,0.95000,1.10000,0.90000
   307,'CAREW       ', 138.0000,2,   3,  32,   1,0.89351, -64.6393,1.05000,0.95000,1.10000,0.90000
   308,'CARREL      ', 138.0000,1,   3,  32,   1,0.88900, -62.2926,1.05000,0.95000,1.10000,0.90000
   309,'CARTER      ', 138.0000,1,   3,  33,   1,0.93254, -51.5303,1.05000,0.95000,1.10000,0.90000
   310,'CARUSO      ', 138.0000,1,   3,  33,   1,0.96379, -53.4629,1.05000,0.95000,1.10000,0.90000
   311,'CARY        ', 230.0000,1,   3,  33,   1,0.95569, -45.9631,1.05000,0.95000,1.10000,0.90000
   312,'CAXTON      ', 230.0000,1,   3,  33,   1,0.95730, -44.0347,1.05000,0.95000,1.10000,0.90000
   313,'CECIL       ', 230.0000,2,   3,  34,   1,0.99621, -41.1642,1.05000,0.95000,1.10000,0.90000
   314,'CHAIN       ', 230.0000,2,   3,  36,   1,0.94477, -43.8735,1.05000,0.95000,1.10000,0.90000
   315,'CHASE       ', 230.0000,2,   3,  36,   1,0.96244, -35.4802,1.05000,0.95000,1.10000,0.90000
   316,'CHIFA       ', 230.0000,2,   3,  36,   1,0.95921, -35.7035,1.05000,0.95000,1.10000,0.90000
   317,'CHUHSI      ', 230.0000,1,   3,  37,   1,0.96480, -33.0923,1.05000,0.95000,1.10000,0.90000
   318,'CLARK       ', 230.0000,2,   3,  37,   1,0.96716, -32.0597,1.05000,0.95000,1.10000,0.90000
   319,'CLAY        ', 230.0000,1,   3,  35,   1,0.95724, -35.0062,1.05000,0.95000,1.10000,0.90000
   320,'CLIVE       ', 230.0000,1,   3,  35,   1,0.96339, -32.7747,1.05000,0.95000,1.10000,0.90000
   321,'COBB        ', 230.0000,2,   3,  37,   1,0.96800, -31.5561,1.05000,0.95000,1.10000,0.90000
   322,'COLE        ', 230.0000,2,   3,  37,   1,0.96497, -30.2568,1.05000,0.95000,1.10000,0.90000
   323,'COMTE       ', 230.0000,2,   3,  35,   1,0.97018, -30.9358,1.05000,0.95000,1.10000,0.90000
   324,'CURIE       ', 230.0000,1,   3,  36,   1,0.93665, -40.8494,1.05000,0.95000,1.10000,0.90000
   325,'CURTISS     ', 230.0000,1,   3,  35,   1,0.96217, -29.0165,1.05000,0.95000,1.10000,0.90000
0 / END OF BUS DATA, BEGIN LOAD DATA
@!   I,'ID',STAT,AREA,ZONE,      PL,        QL,        IP,        IQ,        YP,        YQ, OWNER,SCALE,INTRPT,  DGENP,     DGENQ,DGENF,'  LOAD TYPE '
   101,'1 ',   1,   1,  11,    92.289,    18.800,     0.000,     0.000,     0.000,     0.000,   1,    0,  0,     0.000,     0.000,    0,'            '
   102,'1 ',   1,   1,  12,    82.889,    17.091,     0.000,     0.000,     0.000,     0.000,   1,    0,  0,     0.000,     0.000,    0,'            '
   103,'1 ',   1,   1,  11,   153.815,    31.618,     0.000,     0.000,     0.000,     0.000,   1,    0,  0,     0.000,     0.000,    0,'            '
   104,'1 ',   1,   1,  11,    63.235,    12.818,     0.000,     0.000,     0.000,     0.000,   1,    0,  0,     0.000,     0.000,    0,'            '
   105,'1 ',   1,   1,  11,    60.671,    11.963,     0.000,     0.000,     0.000,     0.000,   1,    0,  0,     0.000,     0.000,    0,'            '
   106,'1 ',   1,   1,  12,   116.216,    23.927,     0.000,     0.000,     0.000,     0.000,   1,    0,  0,     0.000,     0.000,    0,'            '
   107,'1 ',   1,   1,  12,   106.816,    21.363,     0.000,     0.000,     0.000,     0.000,   1,    0,  0,     0.000,     0.000,    0,'            '
   108,'1 ',   1,   1,  12,   146.124,    29.908,     0.000,     0.000,     0.000,     0.000,   1,    0,  0,     0.000,     0.000,    0,'            '
   109,'1 ',   1,   1,  13,   149.542,    30.763,     0.000,     0.000,     0.000,     0.000,   1,    0,  0,     0.000,     0.000,    0,'            '
   110,'1 ',   1,   1,  13,   166.633,    34.181,     0.000,     0.000,     0.000,     0.000,   1,    0,  0,     0.000,     0.000,    0,'            '
   113,'1 ',   1,   1,  14,   226.450,    46.144,     0.000,     0.000,     0.000,     0.000,   1,    0,  0,     0.000,     0.000,    0,'            '
   114,'1 ',   1,   1,  16,   165.778,    33.327,     0.000,     0.000,     0.000,     0.000,   1,    0,  0,     0.000,     0.000,    0,'            '
   115,'1 ',   1,   1,  16,   270.885,    54.690,     0.000,     0.000,     0.000,     0.000,   1,    0,  0,     0.000,     0.000,    0,'            '
   116,'1 ',   1,   1,  16,    85.453,    17.091,     0.000,     0.000,     0.000,     0.000,   1,    0,  0,     0.000,     0.000,    0,'            '
   118,'1 ',   1,   1,  17,   284.558,    58.108,     0.000,     0.000,     0.000,     0.000,   1,    0,  0,     0.000,     0.000,    0,'            '
   119,'1 ',   1,   1,  15,   154.669,    31.618,     0.000,     0.000,     0.000,     0.000,   1,    0,  0,     0.000,     0.000,    0,'            '
   120,'1 ',   1,   1,  15,   109.380,    22.218,     0.000,     0.000,     0.000,     0.000,   1,    0,  0,     0.000,     0.000,    0,'            '
   201,'1 ',   1,   2,  21,    95.097,    19.372,     0.000,     0.000,     0.000,     0.000,   1,    0,  0,     0.000,     0.000,    0,'            '
   202,'1 ',   1,   2,  22,    85.411,    17.611,     0.000,     0.000,     0.000,     0.000,   1,    0,  0,     0.000,     0.000,    0,'            '
   203,'1 ',   1,   2,  21,   158.495,    32.580,     0.000,     0.000,     0.000,     0.000,   1,    0,  0,     0.000,     0.000,    0,'            '
   204,'1 ',   1,   2,  21,    65.159,    13.208,     0.000,     0.000,     0.000,     0.000,   1,    0,  0,     0.000,     0.000,    0,'            '
   205,'1 ',   1,   2,  21,    62.518,    12.327,     0.000,     0.000,     0.000,     0.000,   1,    0,  0,     0.000,     0.000,    0,'            '
   206,'1 ',   1,   2,  22,   119.752,    24.655,     0.000,     0.000,     0.000,     0.000,   1,    0,  0,     0.000,     0.000,    0,'            '
   207,'1 ',   1,   2,  22,   110.066,    22.013,     0.000,     0.000,     0.000,     0.000,   1,    0,  0,     0.000,     0.000,    0,'            '
   208,'1 ',   1,   2,  22,   150.570,    30.819,     0.000,     0.000,     0.000,     0.000,   1,    0,  0,     0.000,     0.000,    0,'            '
   209,'1 ',   1,   2,  23,   154.093,    31.699,     0.000,     0.000,     0.000,     0.000,   1,    0,  0,     0.000,     0.000,    0,'            '
   210,'1 ',   1,   2,  23,   171.703,    35.221,     0.000,     0.000,     0.000,     0.000,   1,    0,  0,     0.000,     0.000,    0,'            '
   213,'1 ',   1,   2,  24,   233.340,    47.549,     0.000,     0.000,     0.000,     0.000,   1,    0,  0,     0.000,     0.000,    0,'            '
   214,'1 ',   1,   2,  26,   170.823,    34.341,     0.000,     0.000,     0.000,     0.000,   1,    0,  0,     0.000,     0.000,    0,'            '
   215,'1 ',   1,   2,  26,   279.128,    56.354,     0.000,     0.000,     0.000,     0.000,   1,    0,  0,     0.000,     0.000,    0,'            '
   216,'1 ',   1,   2,  26,    88.053,    17.611,     0.000,     0.000,     0.000,     0.000,   1,    0,  0,     0.000,     0.000,    0,'            '
   218,'1 ',   1,   2,  27,   293.216,    59.876,     0.000,     0.000,     0.000,     0.000,   1,    0,  0,     0.000,     0.000,    0,'            '
   219,'1 ',   1,   2,  25,   159.376,    32.580,     0.000,     0.000,     0.000,     0.000,   1,    0,  0,     0.000,     0.000,    0,'            '
   220,'1 ',   1,   2,  25,   112.708,    22.894,     0.000,     0.000,     0.000,     0.000,   1,    0,  0,     0.000,     0.000,    0,'            '
   301,'1 ',   1,   3,  31,    79.488,    16.192,     0.000,     0.000,     0.000,     0.000,   1,    0,  0,     0.000,     0.000,    0,'            '
   302,'1 ',   1,   3,  32,    71.392,    14.720,     0.000,     0.000,     0.000,     0.000,   1,    0,  0,     0.000,     0.000,    0,'            '
   303,'1 ',   1,   3,  31,   132.480,    27.232,     0.000,     0.000,     0.000,     0.000,   1,    0,  0,     0.000,     0.000,    0,'            '
   304,'1 ',   1,   3,  31,    54.464,    11.040,     0.000,     0.000,     0.000,     0.000,   1,    0,  0,     0.000,     0.000,    0,'            '
   305,'1 ',   1,   3,  31,    52.256,    10.304,     0.000,     0.000,     0.000,     0.000,   1,    0,  0,     0.000,     0.000,    0,'            '
   306,'1 ',   1,   3,  32,   100.096,    20.608,     0.000,     0.000,     0.000,     0.000,   1,    0,  0,     0.000,     0.000,    0,'            '
   307,'1 ',   1,   3,  32,    92.000,    18.400,     0.000,     0.000,     0.000,     0.000,   1,    0,  0,     0.000,     0.000,    0,'            '
   308,'1 ',   1,   3,  32,   125.856,    25.760,     0.000,     0.000,     0.000,     0.000,   1,    0,  0,     0.000,     0.000,    0,'            '
   309,'1 ',   1,   3,  33,   128.800,    26.496,     0.000,     0.000,     0.000,     0.000,   1,    0,  0,     0.000,     0.000,    0,'            '
   310,'1 ',   1,   3,  33,   143.520,    29.440,     0.000,     0.000,     0.000,     0.000,   1,    0,  0,     0.000,     0.000,    0,'            '
   313,'1 ',   1,   3,  34,   195.040,    39.744,     0.000,     0.000,     0.000,     0.000,   1,    0,  0,     0.000,     0.000,    0,'            '
   314,'1 ',   1,   3,  36,   142.784,    28.704,     0.000,     0.000,     0.000,     0.000,   1,    0,  0,     0.000,     0.000,    0,'            '
   315,'1 ',   1,   3,  36,   233.312,    47.104,     0.000,     0.000,     0.000,     0.000,   1,    0,  0,     0.000,     0.000,    0,'            '
   316,'1 ',   1,   3,  36,    73.600,    14.720,     0.000,     0.000,     0.000,     0.000,   1,    0,  0,     0.000,     0.000,    0,'            '
   318,'1 ',   1,   3,  37,   245.088,    50.048,     0.000,     0.000,     0.000,     0.000,   1,    0,  0,     0.000,     0.000,    0,'            '
   319,'1 ',   1,   3,  35,   133.216,    27.232,     0.000,     0.000,     0.000,     0.000,   1,    0,  0,     0.000,     0.000,    0,'            '
   320,'1 ',   1,   3,  35,    94.208,    19.136,     0.000,     0.000,     0.000,     0.000,   1,    0,  0,     0.000,     0.000,    0,'            '
0 / END OF LOAD DATA, BEGIN FIXED SHUNT DATA
@!   I,'ID',STATUS,  GL,        BL
   106,'1 ',1,     0.000,  -100.000
   206,'1 ',1,     0.000,  -100.000
   306,'1 ',1,     0.000,  -100.000
0 / END OF FIXED SHUNT DATA, BEGIN GENERATOR DATA
@!   I,'ID',      PG,        QG,        QT,        QB,     VS,    IREG,NREG,     MBASE,     ZR,         ZX,         RT,         XT,     GTAP,STAT, RMPCT,      PT,        PB,BASLOD,O1,    F1,  O2,    F2,  O3,    F3,  O4,    F4,WMOD, WPF
   101,'1 ',    32.200,     0.000,     0.000,     0.000,0.96371,   101,   0,    25.900, 0.00000E+0, 1.00000E+0, 0.00000E+0, 0.00000E+0,1.00000,1,  100.0,    51.800,     0.000, 0,   1,1.0000
   101,'2 ',    25.600,     0.000,     0.000,     0.000,0.96371,   101,   0,    26.700, 0.00000E+0, 1.00000E+0, 0.00000E+0, 0.00000E+0,1.00000,1,  100.0,    53.400,     0.000, 0,   1,1.0000
   101,'3 ',    26.400,     0.000,     0.000,     0.000,0.96371,   101,   0,    26.200, 0.00000E+0, 1.00000E+0, 0.00000E+0, 0.00000E+0,1.00000,1,  100.0,    52.400,     0.000, 0,   1,1.0000
   101,'4 ',    27.800,     0.000,     0.000,     0.000,0.96371,   101,   0,    25.800, 0.00000E+0, 1.00000E+0, 0.00000E+0, 0.00000E+0,1.00000,1,  100.0,    51.600,     0.000, 0,   1,1.0000
   101,'5 ',    76.000,   -11.333,    30.000,   -25.000,0.96371,   101,   0,    89.000, 0.00000E+0, 1.00000E+0, 0.00000E+0, 0.00000E+0,1.00000,1,  100.0,    76.000,    30.000, 0,   1,1.0000
   101,'6 ',    76.000,   -11.333,    30.000,   -25.000,0.96371,   101,   0,    89.000, 0.00000E+0, 1.00000E+0, 0.00000E+0, 0.00000E+0,1.00000,1,  100.0,    76.000,    30.000, 0,   1,1.0000
   102,'1 ',    28.000,     0.000,     0.000,     0.000,0.96458,   102,   0,    25.600, 0.00000E+0, 1.00000E+0, 0.00000E+0, 0.00000E+0,1.00000,1,  100.0,    51.200,     0.000, 0,   1,1.0000
   102,'2 ',    27.400,     0.000,     0.000,     0.000,0.96458,   102,   0,    25.300, 0.00000E+0, 1.00000E+0, 0.00000E+0, 0.00000E+0,1.00000,1,  100.0,    50.600,     0.000, 0,   1,1.0000
   102,'3 ',    76.000,     0.127,    30.000,   -25.000,0.96458,   102,   0,    89.000, 0.00000E+0, 1.00000E+0, 0.00000E+0, 0.00000E+0,1.00000,1,  100.0,    76.000,    30.000, 0,   1,1.0000
   102,'4 ',    76.000,     0.127,    30.000,   -25.000,0.96458,   102,   0,    89.000, 0.00000E+0, 1.00000E+0, 0.00000E+0, 0.00000E+0,1.00000,1,  100.0,    76.000,    30.000, 0,   1,1.0000
   103,'1 ',     1.400,    -0.000,     0.000,     0.000,0.94787,   103,   0,    61.500, 0.00000E+0, 1.00000E+0, 0.00000E+0, 0.00000E+0,1.00000,1,  100.0,   123.000,     0.000, 0,   1,1.0000
   104,'1 ',    30.400,    -0.000,     0.000,     0.000,0.95155,   104,   0,    26.800, 0.00000E+0, 1.00000E+0, 0.00000E+0, 0.00000E+0,1.00000,1,  100.0,    53.600,     0.000, 0,   1,1.0000
   107,'1 ',   355.000,    41.177,   150.000,   -25.000,0.96437,   107,   0,   414.000, 0.00000E+0, 1.00000E+0, 0.00000E+0, 0.00000E+0,1.00000,1,  100.0,   355.000,   170.000, 0,   1,1.0000
   113,'1 ',   160.789,   -15.000,    19.000,   -15.000,0.98099,   113,   0,    64.000, 0.00000E+0, 1.00000E+0, 0.00000E+0, 0.00000E+0,1.00000,1,  100.0,    55.000,    22.000, 0,   1,1.0000
   113,'2 ',   160.789,   -15.000,    19.000,   -15.000,0.98099,   113,   0,    64.000, 0.00000E+0, 1.00000E+0, 0.00000E+0, 0.00000E+0,1.00000,1,  100.0,    55.000,    22.000, 0,   1,1.0000
   113,'3 ',   160.789,   -15.000,    19.000,   -15.000,0.98099,   113,   0,    64.000, 0.00000E+0, 1.00000E+0, 0.00000E+0, 0.00000E+0,1.00000,1,  100.0,    55.000,    22.000, 0,   1,1.0000
   113,'4 ',   160.789,   -15.000,    19.000,   -15.000,0.98099,   113,   0,    64.000, 0.00000E+0, 1.00000E+0, 0.00000E+0, 0.00000E+0,1.00000,1,  100.0,    55.000,    22.000, 0,   1,1.0000
   113,'5 ',   326.841,   -26.831,     0.000,     0.000,0.98099,   113,   0,    93.600, 0.00000E+0, 1.00000E+0, 0.00000E+0, 0.00000E+0,1.00000,1,  100.0,   187.200,     0.000, 0,   1,1.0000
   113,'6 ',     0.000,    -0.000,   100.000,     0.000,0.98099,   113,   0,   100.000, 0.00000E+0, 1.00000E+0, 0.00000E+0, 0.00000E+0,1.00000,1,  100.0,   100.000,  -100.000, 0,   1,1.0000
   114,'1 ',     0.000,     0.000,     0.000,     0.000,0.96710,   114,   0,   100.000, 0.00000E+0, 1.00000E+0, 0.00000E+0, 0.00000E+0,1.00000,1,  100.0,     0.000,     0.000, 0,   1,1.0000
   115,'1 ',   155.000,    64.130,    80.000,   -50.000,0.98611,   115,   0,   182.000, 0.00000E+0, 1.00000E+0, 0.00000E+0, 0.00000E+0,1.00000,1,  100.0,   155.000,    62.000, 0,   1,1.0000
   116,'1 ',   155.000,    42.516,    80.000,   -50.000,0.99273,   116,   0,   182.000, 0.00000E+0, 1.00000E+0, 0.00000E+0, 0.00000E+0,1.00000,1,  100.0,   155.000,    62.000, 0,   1,1.0000
   118,'1 ',   281.938,   -25.000,   150.000,   -25.000,0.98134,   118,   0,   414.000, 0.00000E+0, 1.00000E+0, 0.00000E+0, 0.00000E+0,1.00000,1,  100.0,   355.000,   170.000, 0,   1,1.0000
   118,'10',     1.620,     1.620,     1.620,     1.620,0.98134,   118,   0,    11.200, 0.00000E+0, 1.00000E+0, 0.00000E+0, 0.00000E+0,1.00000,1,  100.0,     1.620,     1.620, 0,   1,1.0000
   118,'11',     1.440,     1.440,     1.440,     1.440,0.98134,   118,   0,    10.300, 0.00000E+0, 1.00000E+0, 0.00000E+0, 0.00000E+0,1.00000,1,  100.0,     1.440,     1.440, 0,   1,1.0000
   118,'2 ',     1.230,     1.230,     1.230,     1.230,0.98134,   118,   0,     9.300, 0.00000E+0, 1.00000E+0, 0.00000E+0, 0.00000E+0,1.00000,1,  100.0,     1.230,     1.230, 0,   1,1.0000
   118,'3 ',     0.660,     0.660,     0.660,     0.660,0.98134,   118,   0,     4.500, 0.00000E+0, 1.00000E+0, 0.00000E+0, 0.00000E+0,1.00000,1,  100.0,     0.660,     0.660, 0,   1,1.0000
   118,'4 ',     1.230,     1.230,     1.230,     1.230,0.98134,   118,   0,     9.700, 0.00000E+0, 1.00000E+0, 0.00000E+0, 0.00000E+0,1.00000,1,  100.0,     1.230,     1.230, 0,   1,1.0000
   118,'5 ',     1.140,     1.140,     1.140,     1.140,0.98134,   118,   0,     9.400, 0.00000E+0, 1.00000E+0, 0.00000E+0, 0.00000E+0,1.00000,1,  100.0,     1.140,     1.140, 0,   1,1.0000
   118,'6 ',     1.230,     1.230,     1.230,     1.230,0.98134,   118,   0,     9.100, 0.00000E+0, 1.00000E+0, 0.00000E+0, 0.00000E+0,1.00000,1,  100.0,     1.230,     1.230, 0,   1,1.0000
   118,'7 ',     1.200,     1.200,     1.200,     1.200,0.98134,   118,   0,     9.100, 0.00000E+0, 1.00000E+0, 0.00000E+0, 0.00000E+0,1.00000,1,  100.0,     1.200,     1.200, 0,   1,1.0000
   118,'8 ',     1.230,     1.230,     1.230,     1.230,0.98134,   118,   0,     9.700, 0.00000E+0, 1.00000E+0, 0.00000E+0, 0.00000E+0,1.00000,1,  100.0,     1.230,     1.230, 0,   1,1.0000
   118,'9 ',     1.620,     1.620,     1.620,     1.620,0.98134,   118,   0,    11.800, 0.00000E+0, 1.00000E+0, 0.00000E+0, 0.00000E+0,1.00000,1,  100.0,     1.620,     1.620, 0,   1,1.0000
   119,'1 ',    51.800,    -0.000,     0.000,     0.000,1.01132,   119,   0,    66.600, 0.00000E+0, 1.00000E+0, 0.00000E+0, 0.00000E+0,1.00000,1,  100.0,   133.200,     0.000, 0,   1,1.0000
   121,'1 ',   400.000,     8.910,   200.000,   -50.000,0.98428,   121,   0,   471.000, 0.00000E+0, 1.00000E+0, 0.00000E+0, 0.00000E+0,1.00000,1,  100.0,   400.000,   396.000, 0,   1,1.0000
   122,'1 ',    33.700,     0.000,     0.000,     0.000,0.99449,   122,   0,   713.500, 0.00000E+0, 1.00000E+0, 0.00000E+0, 0.00000E+0,1.00000,1,  100.0,   713.500,     0.000, 0,   1,1.0000
   123,'1 ',    55.000,    19.000,    19.000,   -15.000,1.05000,   123,   0,    64.000, 0.00000E+0, 1.00000E+0, 0.00000E+0, 0.00000E+0,1.00000,1,  100.0,    55.000,    22.000, 0,   1,1.0000
   123,'2 ',    55.000,    19.000,    19.000,   -15.000,1.05000,   123,   0,    64.000, 0.00000E+0, 1.00000E+0, 0.00000E+0, 0.00000E+0,1.00000,1,  100.0,    55.000,    22.000, 0,   1,1.0000
   123,'3 ',    55.000,    19.000,    19.000,   -15.000,1.05000,   123,   0,    64.000, 0.00000E+0, 1.00000E+0, 0.00000E+0, 0.00000E+0,1.00000,1,  100.0,    55.000,    22.000, 0,   1,1.0000
   123,'4 ',   155.000,    58.445,    80.000,   -50.000,1.05000,   123,   0,   182.000, 0.00000E+0, 1.00000E+0, 0.00000E+0, 0.00000E+0,1.00000,1,  100.0,   155.000,    62.000, 0,   1,1.0000
   123,'5 ',   350.000,   131.972,   150.000,   -25.000,1.05000,   123,   0,   412.000, 0.00000E+0, 1.00000E+0, 0.00000E+0, 0.00000E+0,1.00000,1,  100.0,   350.000,   140.000, 0,   1,1.0000
   201,'1 ',    44.097,    -0.287,    16.000,   -10.000,0.95393,   201,   0,    53.000, 0.00000E+0, 1.00000E+0, 0.00000E+0, 0.00000E+0,1.00000,1,  100.0,    50.000,     0.000, 0,   1,1.0000
   201,'2 ',    76.000,    -0.495,    30.000,   -25.000,0.95393,   201,   0,    89.000, 0.00000E+0, 1.00000E+0, 0.00000E+0, 0.00000E+0,1.00000,1,  100.0,    76.000,    30.000, 0,   1,1.0000
   202,'1 ',    76.000,    -0.817,    30.000,   -25.000,0.95480,   202,   0,    89.000, 0.00000E+0, 1.00000E+0, 0.00000E+0, 0.00000E+0,1.00000,1,  100.0,    76.000,    30.000, 0,   1,1.0000
   202,'2 ',    76.000,    -0.817,    30.000,   -25.000,0.95480,   202,   0,    89.000, 0.00000E+0, 1.00000E+0, 0.00000E+0, 0.00000E+0,1.00000,1,  100.0,    76.000,    30.000, 0,   1,1.0000
   207,'1 ',    55.000,    19.000,    19.000,   -15.000,0.96063,   207,   0,    64.000, 0.00000E+0, 1.00000E+0, 0.00000E+0, 0.00000E+0,1.00000,1,  100.0,    55.000,    22.000, 0,   1,1.0000
   207,'2 ',    55.000,    19.000,    19.000,   -15.000,0.96063,   207,   0,    64.000, 0.00000E+0, 1.00000E+0, 0.00000E+0, 0.00000E+0,1.00000,1,  100.0,    55.000,    22.000, 0,   1,1.0000
   213,'1 ',   170.000,   150.000,   150.000,   -25.000,1.03754,   213,   0,   414.000, 0.00000E+0, 1.00000E+0, 0.00000E+0, 0.00000E+0,1.00000,1,  100.0,   355.000,   170.000, 0,   1,1.0000
   213,'2 ',    22.000,    19.000,    19.000,   -15.000,1.03754,   213,   0,    64.000, 0.00000E+0, 1.00000E+0, 0.00000E+0, 0.00000E+0,1.00000,1,  100.0,    55.000,    22.000, 0,   1,1.0000
   213,'3 ',    22.000,    19.000,    19.000,   -15.000,1.03754,   213,   0,    64.000, 0.00000E+0, 1.00000E+0, 0.00000E+0, 0.00000E+0,1.00000,1,  100.0,    55.000,    22.000, 0,   1,1.0000
   213,'4 ',     1.560,     1.560,     1.560,     1.560,1.03754,   213,   0,    13.200, 0.00000E+0, 1.00000E+0, 0.00000E+0, 0.00000E+0,1.00000,1,  100.0,     1.560,     1.560, 0,   1,1.0000
   214,'1 ',     0.000,     0.000,     0.000,     0.000,0.98922,   214,   0,   100.000, 0.00000E+0, 1.00000E+0, 0.00000E+0, 0.00000E+0,1.00000,1,  100.0,     0.000,     0.000, 0,   1,1.0000
   215,'1 ',    55.000,    19.000,    19.000,   -15.000,1.01581,   215,   0,    64.000, 0.00000E+0, 1.00000E+0, 0.00000E+0, 0.00000E+0,1.00000,1,  100.0,    55.000,    22.000, 0,   1,1.0000
   215,'2 ',    55.000,    19.000,    19.000,   -15.000,1.01581,   215,   0,    64.000, 0.00000E+0, 1.00000E+0, 0.00000E+0, 0.00000E+0,1.00000,1,  100.0,    55.000,    22.000, 0,   1,1.0000
   215,'3 ',   144.000,     0.000,     0.000,     0.000,1.01581,   215,   0,   125.100, 0.00000E+0, 1.00000E+0, 0.00000E+0, 0.00000E+0,1.00000,1,  100.0,   250.200,     0.000, 0,   1,1.0000
   216,'1 ',   155.000,    80.000,    80.000,   -50.000,1.02360,   216,   0,   182.000, 0.00000E+0, 1.00000E+0, 0.00000E+0, 0.00000E+0,1.00000,1,  100.0,   155.000,    62.000, 0,   1,1.0000
   218,'1 ',   355.000,   150.000,   150.000,   -25.000,1.04893,   218,   0,   414.000, 0.00000E+0, 1.00000E+0, 0.00000E+0, 0.00000E+0,1.00000,1,  100.0,   355.000,   170.000, 0,   1,1.0000
   221,'1 ',   355.000,    48.192,   150.000,   -25.000,1.04281,   221,   0,   414.000, 0.00000E+0, 1.00000E+0, 0.00000E+0, 0.00000E+0,1.00000,1,  100.0,   355.000,   170.000, 0,   1,1.0000
   223,'1 ',    22.000,    15.683,    19.000,   -15.000,1.05000,   223,   0,    64.000, 0.00000E+0, 1.00000E+0, 0.00000E+0, 0.00000E+0,1.00000,1,  100.0,    55.000,    22.000, 0,   1,1.0000
   223,'2 ',    22.000,    15.683,    19.000,   -15.000,1.05000,   223,   0,    64.000, 0.00000E+0, 1.00000E+0, 0.00000E+0, 0.00000E+0,1.00000,1,  100.0,    55.000,    22.000, 0,   1,1.0000
   223,'3 ',    22.000,    15.683,    19.000,   -15.000,1.05000,   223,   0,    64.000, 0.00000E+0, 1.00000E+0, 0.00000E+0, 0.00000E+0,1.00000,1,  100.0,    55.000,    22.000, 0,   1,1.0000
   223,'4 ',    62.000,    44.197,    80.000,   -50.000,1.05000,   223,   0,   182.000, 0.00000E+0, 1.00000E+0, 0.00000E+0, 0.00000E+0,1.00000,1,  100.0,   155.000,    62.000, 0,   1,1.0000
   223,'5 ',    62.000,    44.197,    80.000,   -50.000,1.05000,   223,   0,   182.000, 0.00000E+0, 1.00000E+0, 0.00000E+0, 0.00000E+0,1.00000,1,  100.0,   155.000,    62.000, 0,   1,1.0000
   223,'6 ',   140.000,    99.799,   150.000,   -25.000,1.05000,   223,   0,   412.000, 0.00000E+0, 1.00000E+0, 0.00000E+0, 0.00000E+0,1.00000,1,  100.0,   350.000,   140.000, 0,   1,1.0000
   301,'1 ',    55.000,     1.228,    19.000,   -15.000,0.96077,   301,   0,    64.000, 0.00000E+0, 1.00000E+0, 0.00000E+0, 0.00000E+0,1.00000,1,  100.0,    55.000,    22.000, 0,   1,1.0000
   301,'2 ',    55.000,     1.228,    19.000,   -15.000,0.96077,   301,   0,    64.000, 0.00000E+0, 1.00000E+0, 0.00000E+0, 0.00000E+0,1.00000,1,  100.0,    55.000,    22.000, 0,   1,1.0000
   302,'1 ',    55.000,     8.208,    19.000,   -15.000,0.96196,   302,   0,    64.000, 0.00000E+0, 1.00000E+0, 0.00000E+0, 0.00000E+0,1.00000,1,  100.0,    55.000,    22.000, 0,   1,1.0000
   302,'2 ',    55.000,     8.208,    19.000,   -15.000,0.96196,   302,   0,    64.000, 0.00000E+0, 1.00000E+0, 0.00000E+0, 0.00000E+0,1.00000,1,  100.0,    55.000,    22.000, 0,   1,1.0000
   303,'1 ',    -0.000,    -0.000,     0.000,     0.000,0.94885,   303,   0,   847.000, 0.00000E+0, 1.00000E+0, 0.00000E+0, 0.00000E+0,1.00000,1,  100.0,   847.000,     0.000, 0,   1,1.0000
   307,'1 ',    22.000,    19.000,    19.000,   -15.000,0.95470,   307,   0,    64.000, 0.00000E+0, 1.00000E+0, 0.00000E+0, 0.00000E+0,1.00000,1,  100.0,    55.000,    22.000, 0,   1,1.0000
   307,'2 ',    22.000,    19.000,    19.000,   -15.000,0.95470,   307,   0,    64.000, 0.00000E+0, 1.00000E+0, 0.00000E+0, 0.00000E+0,1.00000,1,  100.0,    55.000,    22.000, 0,   1,1.0000
   308,'1 ',    15.810,    15.810,    15.810,    15.810,0.94519,   308,   0,   100.900, 0.00000E+0, 1.00000E+0, 0.00000E+0, 0.00000E+0,1.00000,1,  100.0,    15.810,    15.810, 0,   1,1.0000
   309,'1 ',     0.400,     0.000,     0.000,     0.000,0.96205,   309,   0,   148.300, 0.00000E+0, 1.00000E+0, 0.00000E+0, 0.00000E+0,1.00000,1,  100.0,   148.300,     0.000, 0,   1,1.0000
   310,'1 ',    -0.000,    -0.000,     0.000,     0.000,0.98494,   310,   0,    51.700, 0.00000E+0, 1.00000E+0, 0.00000E+0, 0.00000E+0,1.00000,1,  100.0,   103.400,     0.000, 0,   1,1.0000
   310,'2 ',    -0.000,    -0.000,     0.000,     0.000,0.98494,   310,   0,    51.600, 0.00000E+0, 1.00000E+0, 0.00000E+0, 0.00000E+0,1.00000,1,  100.0,   103.200,     0.000, 0,   1,1.0000
   312,'1 ',    -0.000,    -0.000,     0.000,     0.000,0.96177,   312,   0,    94.100, 0.00000E+0, 1.00000E+0, 0.00000E+0, 0.00000E+0,1.00000,1,  100.0,   188.200,     0.000, 0,   1,1.0000
   313,'1 ',   170.000,   111.419,   150.000,   -25.000,0.99621,   313,   0,   414.000, 0.00000E+0, 1.00000E+0, 0.00000E+0, 0.00000E+0,1.00000,1,  100.0,   355.000,   170.000, 0,   1,1.0000
   313,'10',     9.570,     9.570,     9.570,     9.570,0.99621,   313,   0,    65.400, 0.00000E+0, 1.00000E+0, 0.00000E+0, 0.00000E+0,1.00000,1,  100.0,     9.570,     9.570, 0,   1,1.0000
   313,'11',     9.420,     9.420,     9.420,     9.420,0.99621,   313,   0,    67.000, 0.00000E+0, 1.00000E+0, 0.00000E+0, 0.00000E+0,1.00000,1,  100.0,     9.420,     9.420, 0,   1,1.0000
   313,'12',     9.720,     9.720,     9.720,     9.720,0.99621,   313,   0,    64.800, 0.00000E+0, 1.00000E+0, 0.00000E+0, 0.00000E+0,1.00000,1,  100.0,     9.720,     9.720, 0,   1,1.0000
   313,'13',     9.390,     9.390,     9.390,     9.390,0.99621,   313,   0,    63.800, 0.00000E+0, 1.00000E+0, 0.00000E+0, 0.00000E+0,1.00000,1,  100.0,     9.390,     9.390, 0,   1,1.0000
   313,'14',     9.600,     9.600,     9.600,     9.600,0.99621,   313,   0,    64.100, 0.00000E+0, 1.00000E+0, 0.00000E+0, 0.00000E+0,1.00000,1,  100.0,     9.600,     9.600, 0,   1,1.0000
   313,'15',     9.600,     9.600,     9.600,     9.600,0.99621,   313,   0,    66.600, 0.00000E+0, 1.00000E+0, 0.00000E+0, 0.00000E+0,1.00000,1,  100.0,     9.600,     9.600, 0,   1,1.0000
   313,'16',     9.600,     9.600,     9.600,     9.600,0.99621,   313,   0,    62.400, 0.00000E+0, 1.00000E+0, 0.00000E+0, 0.00000E+0,1.00000,1,  100.0,     9.600,     9.600, 0,   1,1.0000
   313,'2 ',    -0.000,     0.000,     0.000,     0.000,0.99621,   313,   0,    95.100, 0.00000E+0, 1.00000E+0, 0.00000E+0, 0.00000E+0,1.00000,1,  100.0,   190.200,     0.000, 0,   1,1.0000
   313,'3 ',    -0.000,     0.000,     0.000,     0.000,0.99621,   313,   0,    93.300, 0.00000E+0, 1.00000E+0, 0.00000E+0, 0.00000E+0,1.00000,1,  100.0,   186.600,     0.000, 0,   1,1.0000
   313,'4 ',    15.780,    15.780,    15.780,    15.780,0.99621,   313,   0,   101.700, 0.00000E+0, 1.00000E+0, 0.00000E+0, 0.00000E+0,1.00000,1,  100.0,    15.780,    15.780, 0,   1,1.0000
   313,'5 ',     9.480,     9.480,     9.480,     9.480,0.99621,   313,   0,    66.900, 0.00000E+0, 1.00000E+0, 0.00000E+0, 0.00000E+0,1.00000,1,  100.0,     9.480,     9.480, 0,   1,1.0000
   313,'6 ',     9.810,     9.810,     9.810,     9.810,0.99621,   313,   0,    65.200, 0.00000E+0, 1.00000E+0, 0.00000E+0, 0.00000E+0,1.00000,1,  100.0,     9.810,     9.810, 0,   1,1.0000
   313,'7 ',     3.870,     3.870,     3.870,     3.870,0.99621,   313,   0,    27.800, 0.00000E+0, 1.00000E+0, 0.00000E+0, 0.00000E+0,1.00000,1,  100.0,     3.870,     3.870, 0,   1,1.0000
   313,'8 ',     4.020,     4.020,     4.020,     4.020,0.99621,   313,   0,    27.200, 0.00000E+0, 1.00000E+0, 0.00000E+0, 0.00000E+0,1.00000,1,  100.0,     4.020,     4.020, 0,   1,1.0000
   313,'9 ',     9.720,     9.720,     9.720,     9.720,0.99621,   313,   0,    63.100, 0.00000E+0, 1.00000E+0, 0.00000E+0, 0.00000E+0,1.00000,1,  100.0,     9.720,     9.720, 0,   1,1.0000
   314,'1 ',    -0.000,     0.000,     0.000,     0.000,0.95000,   314,   0,    51.600, 0.00000E+0, 1.00000E+0, 0.00000E+0, 0.00000E+0,1.00000,1,  100.0,   103.200,     0.000, 0,   1,1.0000
   314,'2 ',    -0.000,     0.000,     0.000,     0.000,0.95000,   314,   0,    51.600, 0.00000E+0, 1.00000E+0, 0.00000E+0, 0.00000E+0,1.00000,1,  100.0,   103.200,     0.000, 0,   1,1.0000
   314,'3 ',    -0.000,     0.000,     0.000,     0.000,0.95000,   314,   0,    92.700, 0.00000E+0, 1.00000E+0, 0.00000E+0, 0.00000E+0,1.00000,1,  100.0,   185.400,     0.000, 0,   1,1.0000
   314,'4 ',    -0.000,     0.000,     0.000,     0.000,0.95000,   314,   0,    51.600, 0.00000E+0, 1.00000E+0, 0.00000E+0, 0.00000E+0,1.00000,1,  100.0,   103.200,     0.000, 0,   1,1.0000
   314,'5 ',     0.000,     0.000,     0.000,     0.000,0.95000,   314,   0,   100.000, 0.00000E+0, 1.00000E+0, 0.00000E+0, 0.00000E+0,1.00000,1,  100.0,     0.000,     0.000, 0,   1,1.0000
   315,'1 ',    55.000,    19.000,    19.000,   -15.000,0.96423,   315,   0,    64.000, 0.00000E+0, 1.00000E+0, 0.00000E+0, 0.00000E+0,1.00000,1,  100.0,    55.000,    22.000, 0,   1,1.0000
   315,'2 ',    55.000,    19.000,    19.000,   -15.000,0.96423,   315,   0,    64.000, 0.00000E+0, 1.00000E+0, 0.00000E+0, 0.00000E+0,1.00000,1,  100.0,    55.000,    22.000, 0,   1,1.0000
   315,'3 ',    55.000,    60.000,    60.000,     0.000,0.96423,   315,   0,    64.000, 0.00000E+0, 1.00000E+0, 0.00000E+0, 0.00000E+0,1.00000,1,  100.0,    55.000,    22.000, 0,   1,1.0000
   316,'1 ',    62.000,    25.765,    80.000,   -50.000,0.95921,   316,   0,   182.000, 0.00000E+0, 1.00000E+0, 0.00000E+0, 0.00000E+0,1.00000,1,  100.0,   155.000,    62.000, 0,   1,1.0000
   316,'2 ',     0.000,     0.000,   100.000,     0.000,0.95921,   316,   0,   100.000, 0.00000E+0, 1.00000E+0, 0.00000E+0, 0.00000E+0,1.00000,1,  100.0,   100.000,  -100.000, 0,   1,1.0000
   317,'1 ',    15.800,    -0.000,     0.000,     0.000,0.96550,   317,   0,   799.100, 0.00000E+0, 1.00000E+0, 0.00000E+0, 0.00000E+0,1.00000,1,  100.0,   799.100,     0.000, 0,   1,1.0000
   318,'1 ',   170.000,   -17.593,   150.000,   -25.000,0.96716,   318,   0,   414.000, 0.00000E+0, 1.00000E+0, 0.00000E+0, 0.00000E+0,1.00000,1,  100.0,   355.000,   170.000, 0,   1,1.0000
   319,'1 ',   245.200,    -0.000,     0.000,     0.000,0.96318,   319,   0,   188.200, 0.00000E+0, 1.00000E+0, 0.00000E+0, 0.00000E+0,1.00000,1,  100.0,   376.400,     0.000, 0,   1,1.0000
   320,'1 ',     0.000,    -0.000,     0.000,     0.000,0.96785,   320,   0,    51.600, 0.00000E+0, 1.00000E+0, 0.00000E+0, 0.00000E+0,1.00000,1,  100.0,   103.200,     0.000, 0,   1,1.0000
   320,'2 ',     3.870,     3.870,     3.870,     3.870,0.96785,   320,   0,    27.300, 0.00000E+0, 1.00000E+0, 0.00000E+0, 0.00000E+0,1.00000,1,  100.0,     3.870,     3.870, 0,   1,1.0000
   320,'3 ',     3.870,     3.870,     3.870,     3.870,0.96785,   320,   0,    27.000, 0.00000E+0, 1.00000E+0, 0.00000E+0, 0.00000E+0,1.00000,1,  100.0,     3.870,     3.870, 0,   1,1.0000
   320,'4 ',     3.900,     3.900,     3.900,     3.900,0.96785,   320,   0,    28.300, 0.00000E+0, 1.00000E+0, 0.00000E+0, 0.00000E+0,1.00000,1,  100.0,     3.900,     3.900, 0,   1,1.0000
   320,'5 ',     3.990,     3.990,     3.990,     3.990,0.96785,   320,   0,    27.000, 0.00000E+0, 1.00000E+0, 0.00000E+0, 0.00000E+0,1.00000,1,  100.0,     3.990,     3.990, 0,   1,1.0000
   320,'6 ',     3.990,     3.990,     3.990,     3.990,0.96785,   320,   0,    28.200, 0.00000E+0, 1.00000E+0, 0.00000E+0, 0.00000E+0,1.00000,1,  100.0,     3.990,     3.990, 0,   1,1.0000
   320,'7 ',     1.230,     1.230,     1.230,     1.230,0.96785,   320,   0,     9.400, 0.00000E+0, 1.00000E+0, 0.00000E+0, 0.00000E+0,1.00000,1,  100.0,     1.230,     1.230, 0,   1,1.0000
   321,'1 ',   293.333,   -14.488,   150.000,   -25.000,0.96800,   321,   0,   414.000, 0.00000E+0, 1.00000E+0, 0.00000E+0, 0.00000E+0,1.00000,1,  100.0,   355.000,   170.000, 0,   1,1.0000
   322,'1 ',    36.678,   -14.682,    19.000,   -15.000,0.96497,   322,   0,    64.000, 0.00000E+0, 1.00000E+0, 0.00000E+0, 0.00000E+0,1.00000,1,  100.0,    55.000,    22.000, 0,   1,1.0000
   322,'2 ',    36.678,   -14.682,    19.000,   -15.000,0.96497,   322,   0,    64.000, 0.00000E+0, 1.00000E+0, 0.00000E+0, 0.00000E+0,1.00000,1,  100.0,    55.000,    22.000, 0,   1,1.0000
   323,'1 ',   170.000,    35.702,   150.000,   -25.000,0.97018,   323,   0,   414.000, 0.00000E+0, 1.00000E+0, 0.00000E+0, 0.00000E+0,1.00000,1,  100.0,   355.000,   170.000, 0,   1,1.0000
   323,'2 ',   170.000,    35.702,   150.000,   -25.000,0.97018,   323,   0,   414.000, 0.00000E+0, 1.00000E+0, 0.00000E+0, 0.00000E+0,1.00000,1,  100.0,   355.000,   170.000, 0,   1,1.0000
   324,'1 ',    67.200,    -0.000,     0.000,     0.000,0.94935,   324,   0,    49.700, 0.00000E+0, 1.00000E+0, 0.00000E+0, 0.00000E+0,1.00000,1,  100.0,    99.400,     0.000, 0,   1,1.0000
   324,'2 ',    67.600,    -0.000,     0.000,     0.000,0.94935,   324,   0,    51.600, 0.00000E+0, 1.00000E+0, 0.00000E+0, 0.00000E+0,1.00000,1,  100.0,   103.200,     0.000, 0,   1,1.0000
   324,'3 ',    67.600,    -0.000,     0.000,     0.000,0.94935,   324,   0,    51.000, 0.00000E+0, 1.00000E+0, 0.00000E+0, 0.00000E+0,1.00000,1,  100.0,   102.000,     0.000, 0,   1,1.0000
0 / END OF GENERATOR DATA, BEGIN BRANCH DATA
@!   I,     J,'CKT',      R,           X,       B,                   'N A M E'                 ,  RATE1,  RATE2,  RATE3,  RATE4,  RATE5,  RATE6,  RATE7,  RATE8,  RATE9, RATE10, RATE11, RATE12,   GI,      BI,      GJ,      BJ,STAT,MET, LEN,  O1,  F1,    O2,  F2,    O3,  F3,    O4,  F4
   101,   102,'A1', 2.74571E-03, 1.40000E-02,0.46100,'                                        ', 175.00,   0.00,   0.00,   0.00,   0.00,   0.00,   0.00,   0.00,   0.00,   0.00,   0.00,   0.00, 0.00000, 0.00000, 0.00000, 0.00000,1,1,  0.00,   1,1.0000
   101,   103,'A2', 5.09512E-02, 2.11000E-01,0.05700,'                                        ', 175.00,   0.00,   0.00,   0.00,   0.00,   0.00,   0.00,   0.00,   0.00,   0.00,   0.00,   0.00, 0.00000, 0.00000, 0.00000, 0.00000,1,1,  0.00,   1,1.0000
   101,   105,'A3', 2.04625E-02, 8.50000E-02,0.02300,'                                        ', 175.00,   0.00,   0.00,   0.00,   0.00,   0.00,   0.00,   0.00,   0.00,   0.00,   0.00,   0.00, 0.00000, 0.00000, 0.00000, 0.00000,1,1,  0.00,   1,1.0000
   102,   104,'A4', 3.03873E-02, 1.27000E-01,0.03400,'                                        ', 175.00,   0.00,   0.00,   0.00,   0.00,   0.00,   0.00,   0.00,   0.00,   0.00,   0.00,   0.00, 0.00000, 0.00000, 0.00000, 0.00000,1,1,  0.00,   1,1.0000
   102,   106,'A5', 4.63849E-02, 1.92000E-01,0.05200,'                                        ', 175.00,   0.00,   0.00,   0.00,   0.00,   0.00,   0.00,   0.00,   0.00,   0.00,   0.00,   0.00, 0.00000, 0.00000, 0.00000, 0.00000,1,1,  0.00,   1,1.0000
   103,   109,'A6', 2.83059E-02, 1.19000E-01,0.03200,'                                        ', 175.00,   0.00,   0.00,   0.00,   0.00,   0.00,   0.00,   0.00,   0.00,   0.00,   0.00,   0.00, 0.00000, 0.00000, 0.00000, 0.00000,1,1,  0.00,   1,1.0000
   103,   124,'A7', 1.84228E-03, 8.40000E-02,0.00000,'                                        ', 400.00,   0.00,   0.00,   0.00,   0.00,   0.00,   0.00,   0.00,   0.00,   0.00,   0.00,   0.00, 0.00000, 0.00000, 0.00000, 0.00000,1,1,  0.00,   1,1.0000
   104,   109,'A8', 2.50558E-02, 1.04000E-01,0.02800,'                                        ', 175.00,   0.00,   0.00,   0.00,   0.00,   0.00,   0.00,   0.00,   0.00,   0.00,   0.00,   0.00, 0.00000, 0.00000, 0.00000, 0.00000,1,1,  0.00,   1,1.0000
   105,   110,'A9', 2.12668E-02, 8.80000E-02,0.02400,'                                        ', 175.00,   0.00,   0.00,   0.00,   0.00,   0.00,   0.00,   0.00,   0.00,   0.00,   0.00,   0.00, 0.00000, 0.00000, 0.00000, 0.00000,1,1,  0.00,   1,1.0000
   106,   110,'10', 1.33184E-02, 6.10000E-02,2.45900,'                                        ', 175.00,   0.00,   0.00,   0.00,   0.00,   0.00,   0.00,   0.00,   0.00,   0.00,   0.00,   0.00, 0.00000, 0.00000, 0.00000, 0.00000,1,1,  0.00,   1,1.0000
   107,   108,'11', 1.48067E-02, 6.10000E-02,0.01700,'                                        ', 175.00,   0.00,   0.00,   0.00,   0.00,   0.00,   0.00,   0.00,   0.00,   0.00,   0.00,   0.00, 0.00000, 0.00000, 0.00000, 0.00000,1,1,  0.00,   1,1.0000
   107,   203,'B1', 4.03975E-02, 1.61000E-01,0.04400,'                                        ', 175.00,   0.00,   0.00,   0.00,   0.00,   0.00,   0.00,   0.00,   0.00,   0.00,   0.00,   0.00, 0.00000, 0.00000, 0.00000, 0.00000,1,1,  0.00,   1,1.0000
   108,   109,'1 ', 3.91640E-02, 1.65000E-01,0.04500,'                                        ', 175.00,   0.00,   0.00,   0.00,   0.00,   0.00,   0.00,   0.00,   0.00,   0.00,   0.00,   0.00, 0.00000, 0.00000, 0.00000, 0.00000,1,1,  0.00,   1,1.0000
   108,   110,'2 ', 3.91860E-02, 1.65000E-01,0.04500,'                                        ', 175.00,   0.00,   0.00,   0.00,   0.00,   0.00,   0.00,   0.00,   0.00,   0.00,   0.00,   0.00, 0.00000, 0.00000, 0.00000, 0.00000,1,1,  0.00,   1,1.0000
   109,   111,'14', 1.84680E-03, 8.40000E-02,0.00000,'                                        ', 400.00,   0.00,   0.00,   0.00,   0.00,   0.00,   0.00,   0.00,   0.00,   0.00,   0.00,   0.00, 0.00000, 0.00000, 0.00000, 0.00000,1,1,  0.00,   1,1.0000
   109,   112,'15', 1.87297E-03, 8.40000E-02,0.00000,'                                        ', 400.00,   0.00,   0.00,   0.00,   0.00,   0.00,   0.00,   0.00,   0.00,   0.00,   0.00,   0.00, 0.00000, 0.00000, 0.00000, 0.00000,1,1,  0.00,   1,1.0000
   110,   111,'16', 1.84822E-03, 8.40000E-02,0.00000,'                                        ', 400.00,   0.00,   0.00,   0.00,   0.00,   0.00,   0.00,   0.00,   0.00,   0.00,   0.00,   0.00, 0.00000, 0.00000, 0.00000, 0.00000,1,1,  0.00,   1,1.0000
   110,   112,'17', 1.90588E-03, 8.40000E-02,0.00000,'                                        ', 400.00,   0.00,   0.00,   0.00,   0.00,   0.00,   0.00,   0.00,   0.00,   0.00,   0.00,   0.00, 0.00000, 0.00000, 0.00000, 0.00000,1,1,  0.00,   1,1.0000
   111,   113,'18', 5.68716E-03, 4.80000E-02,0.10000,'                                        ', 500.00,   0.00,   0.00,   0.00,   0.00,   0.00,   0.00,   0.00,   0.00,   0.00,   0.00,   0.00, 0.00000, 0.00000, 0.00000, 0.00000,1,1,  0.00,   1,1.0000
   111,   114,'19', 4.60368E-03, 4.20000E-02,0.08800,'                                        ', 500.00,   0.00,   0.00,   0.00,   0.00,   0.00,   0.00,   0.00,   0.00,   0.00,   0.00,   0.00, 0.00000, 0.00000, 0.00000, 0.00000,1,1,  0.00,   1,1.0000
   112,   113,'20', 5.57020E-03, 4.80000E-02,0.10000,'                                        ', 500.00,   0.00,   0.00,   0.00,   0.00,   0.00,   0.00,   0.00,   0.00,   0.00,   0.00,   0.00, 0.00000, 0.00000, 0.00000, 0.00000,1,1,  0.00,   1,1.0000
   112,   123,'21', 1.12515E-02, 9.70000E-02,0.20300,'                                        ', 500.00,   0.00,   0.00,   0.00,   0.00,   0.00,   0.00,   0.00,   0.00,   0.00,   0.00,   0.00, 0.00000, 0.00000, 0.00000, 0.00000,1,1,  0.00,   1,1.0000
   113,   123,'22', 1.00557E-02, 8.70000E-02,0.18200,'                                        ', 500.00,   0.00,   0.00,   0.00,   0.00,   0.00,   0.00,   0.00,   0.00,   0.00,   0.00,   0.00, 0.00000, 0.00000, 0.00000, 0.00000,1,1,  0.00,   1,1.0000
   113,   215,'B2', 9.68292E-03, 7.50000E-02,0.15800,'                                        ', 500.00,   0.00,   0.00,   0.00,   0.00,   0.00,   0.00,   0.00,   0.00,   0.00,   0.00,   0.00, 0.00000, 0.00000, 0.00000, 0.00000,1,1,  0.00,   1,1.0000
   114,   116,'23', 4.58176E-03, 5.90000E-02,0.08200,'                                        ', 500.00,   0.00,   0.00,   0.00,   0.00,   0.00,   0.00,   0.00,   0.00,   0.00,   0.00,   0.00, 0.00000, 0.00000, 0.00000, 0.00000,1,1,  0.00,   1,1.0000
   115,   116,'24', 1.80414E-03, 1.70000E-02,0.03600,'                                        ', 500.00,   0.00,   0.00,   0.00,   0.00,   0.00,   0.00,   0.00,   0.00,   0.00,   0.00,   0.00, 0.00000, 0.00000, 0.00000, 0.00000,1,1,  0.00,   1,1.0000
   115,   121,'1 ', 5.47113E-03, 4.90000E-02,0.10300,'                                        ', 500.00,   0.00,   0.00,   0.00,   0.00,   0.00,   0.00,   0.00,   0.00,   0.00,   0.00,   0.00, 0.00000, 0.00000, 0.00000, 0.00000,1,1,  0.00,   1,1.0000
   115,   121,'2 ', 5.47113E-03, 4.90000E-02,0.10300,'                                        ', 500.00,   0.00,   0.00,   0.00,   0.00,   0.00,   0.00,   0.00,   0.00,   0.00,   0.00,   0.00, 0.00000, 0.00000, 0.00000, 0.00000,1,1,  0.00,   1,1.0000
   115,   124,'26', 6.41715E-03, 5.20000E-02,0.10900,'                                        ', 500.00,   0.00,   0.00,   0.00,   0.00,   0.00,   0.00,   0.00,   0.00,   0.00,   0.00,   0.00, 0.00000, 0.00000, 0.00000, 0.00000,1,1,  0.00,   1,1.0000
   116,   117,'27', 2.71151E-03, 2.60000E-02,0.05500,'                                        ', 500.00,   0.00,   0.00,   0.00,   0.00,   0.00,   0.00,   0.00,   0.00,   0.00,   0.00,   0.00, 0.00000, 0.00000, 0.00000, 0.00000,1,1,  0.00,   1,1.0000
   116,   119,'28', 2.76305E-03, 2.30000E-02,0.04900,'                                        ', 500.00,   0.00,   0.00,   0.00,   0.00,   0.00,   0.00,   0.00,   0.00,   0.00,   0.00,   0.00, 0.00000, 0.00000, 0.00000, 0.00000,1,1,  0.00,   1,1.0000
   117,   118,'29', 1.79828E-03, 1.40000E-02,0.03000,'                                        ', 500.00,   0.00,   0.00,   0.00,   0.00,   0.00,   0.00,   0.00,   0.00,   0.00,   0.00,   0.00, 0.00000, 0.00000, 0.00000, 0.00000,1,1,  0.00,   1,1.0000
   117,   122,'30', 1.28106E-02, 1.05000E-01,0.22100,'                                        ', 500.00,   0.00,   0.00,   0.00,   0.00,   0.00,   0.00,   0.00,   0.00,   0.00,   0.00,   0.00, 0.00000, 0.00000, 0.00000, 0.00000,1,1,  0.00,   1,1.0000
   118,   121,'1 ', 2.74784E-03, 2.60000E-02,0.05500,'                                        ', 500.00,   0.00,   0.00,   0.00,   0.00,   0.00,   0.00,   0.00,   0.00,   0.00,   0.00,   0.00, 0.00000, 0.00000, 0.00000, 0.00000,1,1,  0.00,   1,1.0000
   118,   121,'2 ', 2.74784E-03, 2.60000E-02,0.05500,'                                        ', 500.00,   0.00,   0.00,   0.00,   0.00,   0.00,   0.00,   0.00,   0.00,   0.00,   0.00,   0.00, 0.00000, 0.00000, 0.00000, 0.00000,1,1,  0.00,   1,1.0000
   119,   120,'1 ', 4.59228E-03, 4.00000E-02,0.08300,'                                        ', 500.00,   0.00,   0.00,   0.00,   0.00,   0.00,   0.00,   0.00,   0.00,   0.00,   0.00,   0.00, 0.00000, 0.00000, 0.00000, 0.00000,1,1,  0.00,   1,1.0000
   119,   120,'2 ', 4.59228E-03, 4.00000E-02,0.08300,'                                        ', 500.00,   0.00,   0.00,   0.00,   0.00,   0.00,   0.00,   0.00,   0.00,   0.00,   0.00,   0.00, 0.00000, 0.00000, 0.00000, 0.00000,1,1,  0.00,   1,1.0000
   120,   123,'1 ', 2.76799E-03, 2.20000E-02,0.04600,'                                        ', 500.00,   0.00,   0.00,   0.00,   0.00,   0.00,   0.00,   0.00,   0.00,   0.00,   0.00,   0.00, 0.00000, 0.00000, 0.00000, 0.00000,1,1,  0.00,   1,1.0000
   120,   123,'2 ', 2.76799E-03, 2.20000E-02,0.04600,'                                        ', 500.00,   0.00,   0.00,   0.00,   0.00,   0.00,   0.00,   0.00,   0.00,   0.00,   0.00,   0.00, 0.00000, 0.00000, 0.00000, 0.00000,1,1,  0.00,   1,1.0000
   121,   122,'34', 8.22067E-03, 6.80000E-02,0.14200,'                                        ', 500.00,   0.00,   0.00,   0.00,   0.00,   0.00,   0.00,   0.00,   0.00,   0.00,   0.00,   0.00, 0.00000, 0.00000, 0.00000, 0.00000,1,1,  0.00,   1,1.0000
   121,   325,'1 ', 1.17705E-02, 9.70000E-02,0.20300,'                                        ', 500.00,   0.00,   0.00,   0.00,   0.00,   0.00,   0.00,   0.00,   0.00,   0.00,   0.00,   0.00, 0.00000, 0.00000, 0.00000, 0.00000,1,2,  0.00,   1,1.0000
   123,   217,'B3', 9.34202E-03, 7.40000E-02,0.15500,'                                        ', 500.00,   0.00,   0.00,   0.00,   0.00,   0.00,   0.00,   0.00,   0.00,   0.00,   0.00,   0.00, 0.00000, 0.00000, 0.00000, 0.00000,1,1,  0.00,   1,1.0000
   201,   202,'B1', 2.71209E-03, 1.40000E-02,0.46100,'                                        ', 175.00,   0.00,   0.00,   0.00,   0.00,   0.00,   0.00,   0.00,   0.00,   0.00,   0.00,   0.00, 0.00000, 0.00000, 0.00000, 0.00000,1,1,  0.00,   1,1.0000
   201,   203,'B2', 5.05520E-02, 2.11000E-01,0.05700,'                                        ', 175.00,   0.00,   0.00,   0.00,   0.00,   0.00,   0.00,   0.00,   0.00,   0.00,   0.00,   0.00, 0.00000, 0.00000, 0.00000, 0.00000,1,1,  0.00,   1,1.0000
   201,   205,'B3', 1.99946E-02, 8.50000E-02,0.02300,'                                        ', 175.00,   0.00,   0.00,   0.00,   0.00,   0.00,   0.00,   0.00,   0.00,   0.00,   0.00,   0.00, 0.00000, 0.00000, 0.00000, 0.00000,1,1,  0.00,   1,1.0000
   202,   204,'B4', 2.91682E-02, 1.27000E-01,0.03400,'                                        ', 175.00,   0.00,   0.00,   0.00,   0.00,   0.00,   0.00,   0.00,   0.00,   0.00,   0.00,   0.00, 0.00000, 0.00000, 0.00000, 0.00000,1,1,  0.00,   1,1.0000
   202,   206,'B5', 4.60550E-02, 1.92000E-01,0.05200,'                                        ', 175.00,   0.00,   0.00,   0.00,   0.00,   0.00,   0.00,   0.00,   0.00,   0.00,   0.00,   0.00, 0.00000, 0.00000, 0.00000, 0.00000,1,1,  0.00,   1,1.0000
   203,   209,'B6', 2.89156E-02, 1.19000E-01,0.03200,'                                        ', 175.00,   0.00,   0.00,   0.00,   0.00,   0.00,   0.00,   0.00,   0.00,   0.00,   0.00,   0.00, 0.00000, 0.00000, 0.00000, 0.00000,1,1,  0.00,   1,1.0000
   203,   224,'B7', 1.91018E-03, 8.40000E-02,0.00000,'                                        ', 400.00,   0.00,   0.00,   0.00,   0.00,   0.00,   0.00,   0.00,   0.00,   0.00,   0.00,   0.00, 0.00000, 0.00000, 0.00000, 0.00000,1,1,  0.00,   1,1.0000
   204,   209,'B8', 2.45557E-02, 1.04000E-01,0.02800,'                                        ', 175.00,   0.00,   0.00,   0.00,   0.00,   0.00,   0.00,   0.00,   0.00,   0.00,   0.00,   0.00, 0.00000, 0.00000, 0.00000, 0.00000,1,1,  0.00,   1,1.0000
   205,   210,'B9', 2.09226E-02, 8.80000E-02,0.02400,'                                        ', 175.00,   0.00,   0.00,   0.00,   0.00,   0.00,   0.00,   0.00,   0.00,   0.00,   0.00,   0.00, 0.00000, 0.00000, 0.00000, 0.00000,1,1,  0.00,   1,1.0000
   206,   210,'10', 1.29946E-02, 6.10000E-02,2.45900,'                                        ', 175.00,   0.00,   0.00,   0.00,   0.00,   0.00,   0.00,   0.00,   0.00,   0.00,   0.00,   0.00, 0.00000, 0.00000, 0.00000, 0.00000,1,1,  0.00,   1,1.0000
   207,   208,'11', 1.44662E-02, 6.10000E-02,0.01700,'                                        ', 175.00,   0.00,   0.00,   0.00,   0.00,   0.00,   0.00,   0.00,   0.00,   0.00,   0.00,   0.00, 0.00000, 0.00000, 0.00000, 0.00000,1,1,  0.00,   1,1.0000
   208,   209,'1 ', 3.92275E-02, 1.65000E-01,0.04500,'                                        ', 175.00,   0.00,   0.00,   0.00,   0.00,   0.00,   0.00,   0.00,   0.00,   0.00,   0.00,   0.00, 0.00000, 0.00000, 0.00000, 0.00000,1,1,  0.00,   1,1.0000
   208,   210,'2 ', 3.90276E-02, 1.65000E-01,0.04500,'                                        ', 175.00,   0.00,   0.00,   0.00,   0.00,   0.00,   0.00,   0.00,   0.00,   0.00,   0.00,   0.00, 0.00000, 0.00000, 0.00000, 0.00000,1,1,  0.00,   1,1.0000
   209,   211,'14', 1.82459E-03, 8.40000E-02,0.00000,'                                        ', 400.00,   0.00,   0.00,   0.00,   0.00,   0.00,   0.00,   0.00,   0.00,   0.00,   0.00,   0.00, 0.00000, 0.00000, 0.00000, 0.00000,1,1,  0.00,   1,1.0000
   209,   212,'15', 1.84284E-03, 8.40000E-02,0.00000,'                                        ', 400.00,   0.00,   0.00,   0.00,   0.00,   0.00,   0.00,   0.00,   0.00,   0.00,   0.00,   0.00, 0.00000, 0.00000, 0.00000, 0.00000,1,1,  0.00,   1,1.0000
   210,   211,'16', 1.89230E-03, 8.40000E-02,0.00000,'                                        ', 400.00,   0.00,   0.00,   0.00,   0.00,   0.00,   0.00,   0.00,   0.00,   0.00,   0.00,   0.00, 0.00000, 0.00000, 0.00000, 0.00000,1,1,  0.00,   1,1.0000
   210,   212,'17', 1.86029E-03, 8.40000E-02,0.00000,'                                        ', 400.00,   0.00,   0.00,   0.00,   0.00,   0.00,   0.00,   0.00,   0.00,   0.00,   0.00,   0.00, 0.00000, 0.00000, 0.00000, 0.00000,1,1,  0.00,   1,1.0000
   211,   213,'18', 5.33219E-03, 4.80000E-02,0.10000,'                                        ', 500.00,   0.00,   0.00,   0.00,   0.00,   0.00,   0.00,   0.00,   0.00,   0.00,   0.00,   0.00, 0.00000, 0.00000, 0.00000, 0.00000,1,1,  0.00,   1,1.0000
   211,   214,'19', 4.60403E-03, 4.20000E-02,0.08800,'                                        ', 500.00,   0.00,   0.00,   0.00,   0.00,   0.00,   0.00,   0.00,   0.00,   0.00,   0.00,   0.00, 0.00000, 0.00000, 0.00000, 0.00000,1,1,  0.00,   1,1.0000
   212,   213,'20', 5.32127E-03, 4.80000E-02,0.10000,'                                        ', 500.00,   0.00,   0.00,   0.00,   0.00,   0.00,   0.00,   0.00,   0.00,   0.00,   0.00,   0.00, 0.00000, 0.00000, 0.00000, 0.00000,1,1,  0.00,   1,1.0000
   212,   223,'21', 1.09198E-02, 9.70000E-02,0.20300,'                                        ', 500.00,   0.00,   0.00,   0.00,   0.00,   0.00,   0.00,   0.00,   0.00,   0.00,   0.00,   0.00, 0.00000, 0.00000, 0.00000, 0.00000,1,1,  0.00,   1,1.0000
   213,   223,'22', 1.00040E-02, 8.70000E-02,0.18200,'                                        ', 500.00,   0.00,   0.00,   0.00,   0.00,   0.00,   0.00,   0.00,   0.00,   0.00,   0.00,   0.00, 0.00000, 0.00000, 0.00000, 0.00000,1,1,  0.00,   1,1.0000
   214,   216,'23', 4.86611E-03, 5.90000E-02,0.08200,'                                        ', 500.00,   0.00,   0.00,   0.00,   0.00,   0.00,   0.00,   0.00,   0.00,   0.00,   0.00,   0.00, 0.00000, 0.00000, 0.00000, 0.00000,1,1,  0.00,   1,1.0000
   215,   216,'24', 1.89680E-03, 1.70000E-02,0.03600,'                                        ', 500.00,   0.00,   0.00,   0.00,   0.00,   0.00,   0.00,   0.00,   0.00,   0.00,   0.00,   0.00, 0.00000, 0.00000, 0.00000, 0.00000,1,1,  0.00,   1,1.0000
   215,   221,'1 ', 5.44426E-03, 4.90000E-02,0.10300,'                                        ', 500.00,   0.00,   0.00,   0.00,   0.00,   0.00,   0.00,   0.00,   0.00,   0.00,   0.00,   0.00, 0.00000, 0.00000, 0.00000, 0.00000,1,1,  0.00,   1,1.0000
   215,   221,'2 ', 5.44426E-03, 4.90000E-02,0.10300,'                                        ', 500.00,   0.00,   0.00,   0.00,   0.00,   0.00,   0.00,   0.00,   0.00,   0.00,   0.00,   0.00, 0.00000, 0.00000, 0.00000, 0.00000,1,1,  0.00,   1,1.0000
   215,   224,'26', 6.48224E-03, 5.20000E-02,0.10900,'                                        ', 500.00,   0.00,   0.00,   0.00,   0.00,   0.00,   0.00,   0.00,   0.00,   0.00,   0.00,   0.00, 0.00000, 0.00000, 0.00000, 0.00000,1,1,  0.00,   1,1.0000
   216,   217,'27', 2.89370E-03, 2.60000E-02,0.05500,'                                        ', 500.00,   0.00,   0.00,   0.00,   0.00,   0.00,   0.00,   0.00,   0.00,   0.00,   0.00,   0.00, 0.00000, 0.00000, 0.00000, 0.00000,1,1,  0.00,   1,1.0000
   216,   219,'28', 2.91404E-03, 2.30000E-02,0.04900,'                                        ', 500.00,   0.00,   0.00,   0.00,   0.00,   0.00,   0.00,   0.00,   0.00,   0.00,   0.00,   0.00, 0.00000, 0.00000, 0.00000, 0.00000,1,1,  0.00,   1,1.0000
   217,   218,'29', 1.79861E-03, 1.40000E-02,0.03000,'                                        ', 500.00,   0.00,   0.00,   0.00,   0.00,   0.00,   0.00,   0.00,   0.00,   0.00,   0.00,   0.00, 0.00000, 0.00000, 0.00000, 0.00000,1,1,  0.00,   1,1.0000
   217,   222,'30', 1.26564E-02, 1.05000E-01,0.22100,'                                        ', 500.00,   0.00,   0.00,   0.00,   0.00,   0.00,   0.00,   0.00,   0.00,   0.00,   0.00,   0.00, 0.00000, 0.00000, 0.00000, 0.00000,1,1,  0.00,   1,1.0000
   218,   221,'1 ', 2.68007E-03, 2.60000E-02,0.05500,'                                        ', 500.00,   0.00,   0.00,   0.00,   0.00,   0.00,   0.00,   0.00,   0.00,   0.00,   0.00,   0.00, 0.00000, 0.00000, 0.00000, 0.00000,1,1,  0.00,   1,1.0000
   218,   221,'2 ', 2.68007E-03, 2.60000E-02,0.05500,'                                        ', 500.00,   0.00,   0.00,   0.00,   0.00,   0.00,   0.00,   0.00,   0.00,   0.00,   0.00,   0.00, 0.00000, 0.00000, 0.00000, 0.00000,1,1,  0.00,   1,1.0000
   219,   220,'1 ', 4.53267E-03, 4.00000E-02,0.08300,'                                        ', 500.00,   0.00,   0.00,   0.00,   0.00,   0.00,   0.00,   0.00,   0.00,   0.00,   0.00,   0.00, 0.00000, 0.00000, 0.00000, 0.00000,1,1,  0.00,   1,1.0000
   219,   220,'2 ', 4.53267E-03, 4.00000E-02,0.08300,'                                        ', 500.00,   0.00,   0.00,   0.00,   0.00,   0.00,   0.00,   0.00,   0.00,   0.00,   0.00,   0.00, 0.00000, 0.00000, 0.00000, 0.00000,1,1,  0.00,   1,1.0000
   220,   223,'1 ', 2.70274E-03, 2.20000E-02,0.04600,'                                        ', 500.00,   0.00,   0.00,   0.00,   0.00,   0.00,   0.00,   0.00,   0.00,   0.00,   0.00,   0.00, 0.00000, 0.00000, 0.00000, 0.00000,1,1,  0.00,   1,1.0000
...